
#======================================================================
# CRYSTAL DATA
#----------------------------------------------------------------------
data_VESTA_phase_1

_chemical_name_common                  '"O128 Si63 Al1 H1"'
_cell_length_a                         12.661400
_cell_length_b                         12.661400
_cell_length_c                         26.406099
_cell_angle_alpha                      90.000000
_cell_angle_beta                       90.000000
_cell_angle_gamma                      90.000000
_cell_volume                           4233.189401
_space_group_name_H-M_alt              'P 1'
_space_group_IT_number                 1

_symmetry_space_group_name_H-M   'P 1'
_symmetry_Int_Tables_number   1

loop_
_space_group_symop_operation_xyz
   'x, y, z'

loop_
   _atom_site_label
   _atom_site_occupancy
   _atom_site_fract_x
   _atom_site_fract_y
   _atom_site_fract_z
   _atom_site_adp_type
   _atom_site_U_iso_or_equiv
   _atom_site_type_symbol
O	1	0.33333	0.66601	0.06577	Uiso	?	O
O	1	0.66667	0.33399	0.56577	Uiso	?	O
O	1	0.33399	0.33333	0.31577	Uiso	?	O
O	1	0.66601	0.66667	0.81577	Uiso	?	O
O	1	0.66667	0.66601	0.93423	Uiso	?	O
O	1	0.33333	0.33399	0.43423	Uiso	?	O
O	1	0.66601	0.33333	0.68423	Uiso	?	O
O	1	0.33399	0.66667	0.18423	Uiso	?	O
O	1	0.33673	0.82	0.99668	Uiso	?	O
O	1	0.66327	0.18	0.49668	Uiso	?	O
O	1	0.18	0.33673	0.24668	Uiso	?	O
O	1	0.82	0.66327	0.74668	Uiso	?	O
O	1	0.66327	0.82	0.00332	Uiso	?	O
O	1	0.33673	0.18	0.50332	Uiso	?	O
O	1	0.82	0.33673	0.75332	Uiso	?	O
O	1	0.18	0.66327	0.25332	Uiso	?	O
O	1	0.23193	0.84543	0.08199	Uiso	?	O
O	1	0.76807	0.15457	0.58199	Uiso	?	O
O	1	0.15457	0.23193	0.33199	Uiso	?	O
O	1	0.84543	0.76807	0.83199	Uiso	?	O
O	1	0.76807	0.84543	0.91801	Uiso	?	O
O	1	0.23193	0.15457	0.41801	Uiso	?	O
O	1	0.84543	0.23193	0.66801	Uiso	?	O
O	1	0.15457	0.76807	0.16801	Uiso	?	O
O	1	0.44207	0.84265	0.08093	Uiso	?	O
O	1	0.55793	0.15735	0.58093	Uiso	?	O
O	1	0.15735	0.44207	0.33093	Uiso	?	O
O	1	0.84265	0.55793	0.83093	Uiso	?	O
O	1	0.55793	0.84265	0.91907	Uiso	?	O
O	1	0.44207	0.15735	0.41907	Uiso	?	O
O	1	0.84265	0.44207	0.66907	Uiso	?	O
O	1	0.15735	0.55793	0.16907	Uiso	?	O
O	1	0.33701	0.51308	0.99632	Uiso	?	O
Z1	1	0.66299	0.48692	0.49632	Uiso	?	O
O	1	0.48692	0.33701	0.24632	Uiso	?	O
O	1	0.51308	0.66299	0.74632	Uiso	?	O
O	1	0.66299	0.51308	0.00368	Uiso	?	O
O	1	0.33701	0.48692	0.50368	Uiso	?	O
O	1	0.51308	0.33701	0.75368	Uiso	?	O
O	1	0.48692	0.66299	0.25368	Uiso	?	O
O	1	0.23212	0.48624	0.08152	Uiso	?	O
O	1	0.76788	0.51376	0.58152	Uiso	?	O
O	1	0.51376	0.23212	0.33152	Uiso	?	O
O	1	0.48624	0.76788	0.83152	Uiso	?	O
O	1	0.76788	0.48624	0.91848	Uiso	?	O
O	1	0.23212	0.51376	0.41848	Uiso	?	O
O	1	0.48624	0.23212	0.66848	Uiso	?	O
O	1	0.51376	0.76788	0.16848	Uiso	?	O
O	1	0.44259	0.48934	0.08036	Uiso	?	O
O	1	0.55741	0.51066	0.58036	Uiso	?	O
O	1	0.51066	0.44259	0.33036	Uiso	?	O
O	1	0.48934	0.55741	0.83036	Uiso	?	O
O	1	0.55741	0.48934	0.91964	Uiso	?	O
O	1	0.44259	0.51066	0.41964	Uiso	?	O
O	1	0.48934	0.44259	0.66964	Uiso	?	O
O	1	0.51066	0.55741	0.16964	Uiso	?	O
O	1	0.70719	0.667	0.06867	Uiso	?	O
O	1	0.29281	0.333	0.56867	Uiso	?	O
O	1	0.333	0.70719	0.31867	Uiso	?	O
O	1	0.667	0.29281	0.81867	Uiso	?	O
O	1	0.29281	0.667	0.93133	Uiso	?	O
O	1	0.70719	0.333	0.43133	Uiso	?	O
O	1	0.667	0.70719	0.68133	Uiso	?	O
O	1	0.333	0.29281	0.18133	Uiso	?	O
O	1	0.83511	0.8327	0.06143	Uiso	?	O
O	1	0.16489	0.1673	0.56143	Uiso	?	O
O	1	0.1673	0.83511	0.31143	Uiso	?	O
O	1	0.8327	0.16489	0.81143	Uiso	?	O
O	1	0.16489	0.8327	0.93857	Uiso	?	O
O	1	0.83511	0.1673	0.43857	Uiso	?	O
O	1	0.8327	0.83511	0.68857	Uiso	?	O
O	1	0.1673	0.16489	0.18857	Uiso	?	O
O	1	0.64661	0.85351	0.10179	Uiso	?	O
O	1	0.35339	0.14649	0.60179	Uiso	?	O
O	1	0.14649	0.64661	0.35179	Uiso	?	O
O	1	0.85351	0.35339	0.85179	Uiso	?	O
O	1	0.35339	0.85351	0.89821	Uiso	?	O
O	1	0.64661	0.14649	0.39821	Uiso	?	O
O	1	0.85351	0.64661	0.64821	Uiso	?	O
O	1	0.14649	0.35339	0.14821	Uiso	?	O
O	1	0.83525	0.50134	0.06147	Uiso	?	O
O	1	0.16475	0.49866	0.56147	Uiso	?	O
O	1	0.49866	0.83525	0.31147	Uiso	?	O
O	1	0.50134	0.16475	0.81147	Uiso	?	O
O	1	0.16475	0.50134	0.93853	Uiso	?	O
O	1	0.83525	0.49866	0.43853	Uiso	?	O
O	1	0.50134	0.83525	0.68853	Uiso	?	O
O	1	0.49866	0.16475	0.18853	Uiso	?	O
O	1	0.64718	0.48065	0.10212	Uiso	?	O
O	1	0.35282	0.51935	0.60212	Uiso	?	O
O	1	0.51935	0.64718	0.35212	Uiso	?	O
O	1	0.48065	0.35282	0.85212	Uiso	?	O
O	1	0.35282	0.48065	0.89788	Uiso	?	O
O	1	0.64718	0.51935	0.39788	Uiso	?	O
O	1	0.48065	0.64718	0.64788	Uiso	?	O
O	1	0.51935	0.35282	0.14788	Uiso	?	O
O	1	0	0.82923	0	Uiso	?	O
O	1	0	0.17077	0.5	Uiso	?	O
O	1	0.17077	0	0.25	Uiso	?	O
O	1	0.82923	0	0.75	Uiso	?	O
O	1	0.96577	0.66709	0.06159	Uiso	?	O
O	1	0.03423	0.33291	0.56159	Uiso	?	O
O	1	0.33291	0.96577	0.31159	Uiso	?	O
O	1	0.66709	0.03423	0.81159	Uiso	?	O
O	1	0.03423	0.66709	0.93841	Uiso	?	O
O	1	0.96577	0.33291	0.43841	Uiso	?	O
O	1	0.66709	0.96577	0.68841	Uiso	?	O
O	1	0.33291	0.03423	0.18841	Uiso	?	O
O	1	0.02558	0.85088	0.09917	Uiso	?	O
O	1	0.97442	0.14912	0.59917	Uiso	?	O
O	1	0.14912	0.02558	0.34917	Uiso	?	O
O	1	0.85088	0.97442	0.84917	Uiso	?	O
O	1	0.97442	0.85088	0.90083	Uiso	?	O
O	1	0.02558	0.14912	0.40083	Uiso	?	O
O	1	0.85088	0.02558	0.65083	Uiso	?	O
O	1	0.14912	0.97442	0.15083	Uiso	?	O
O	1	0	0.50477	0	Uiso	?	O
O	1	0	0.49523	0.5	Uiso	?	O
O	1	0.49523	0	0.25	Uiso	?	O
O	1	0.50477	0	0.75	Uiso	?	O
O	1	0.02567	0.48342	0.09912	Uiso	?	O
O	1	0.97433	0.51658	0.59912	Uiso	?	O
O	1	0.51658	0.02567	0.34912	Uiso	?	O
O	1	0.48342	0.97433	0.84912	Uiso	?	O
O	1	0.97433	0.48342	0.90088	Uiso	?	O
O	1	0.02567	0.51658	0.40088	Uiso	?	O
O	1	0.48342	0.02567	0.65088	Uiso	?	O
O	1	0.51658	0.97433	0.15088	Uiso	?	O
Si	1	0.33597	0.793	0.05662	Uiso	?	Si
Si	1	0.66403	0.207	0.55662	Uiso	?	Si
Si	1	0.207	0.33597	0.30662	Uiso	?	Si
Si	1	0.793	0.66403	0.80662	Uiso	?	Si
Si	1	0.66403	0.793	0.94338	Uiso	?	Si
Si	1	0.33597	0.207	0.44338	Uiso	?	Si
Si	1	0.793	0.33597	0.69338	Uiso	?	Si
Si	1	0.207	0.66403	0.19338	Uiso	?	Si
Si	1	0.33621	0.53911	0.05635	Uiso	?	Si
Al	1	0.66379	0.46089	0.55635	Uiso	?	Al
Si	1	0.46089	0.33621	0.30635	Uiso	?	Si
Si	1	0.53911	0.66379	0.80635	Uiso	?	Si
Si	1	0.66379	0.53911	0.94365	Uiso	?	Si
Si	1	0.33621	0.46089	0.44365	Uiso	?	Si
Si	1	0.53911	0.33621	0.69365	Uiso	?	Si
Si	1	0.46089	0.66379	0.19365	Uiso	?	Si
Si	1	0.71353	0.79305	0.05843	Uiso	?	Si
Si	1	0.28647	0.20695	0.55843	Uiso	?	Si
Si	1	0.20695	0.71353	0.30843	Uiso	?	Si
Si	1	0.79305	0.28647	0.80843	Uiso	?	Si
Si	1	0.28647	0.79305	0.94157	Uiso	?	Si
Si	1	0.71353	0.20695	0.44157	Uiso	?	Si
Si	1	0.79305	0.71353	0.69157	Uiso	?	Si
Si	1	0.20695	0.28647	0.19157	Uiso	?	Si
Si	1	0.71365	0.54091	0.05859	Uiso	?	Si
Si	1	0.28635	0.45909	0.55859	Uiso	?	Si
Si	1	0.45909	0.71365	0.30859	Uiso	?	Si
Si	1	0.54091	0.28635	0.80859	Uiso	?	Si
Si	1	0.28635	0.54091	0.94141	Uiso	?	Si
Si	1	0.71365	0.45909	0.44141	Uiso	?	Si
Si	1	0.54091	0.71365	0.69141	Uiso	?	Si
Si	1	0.45909	0.28635	0.19141	Uiso	?	Si
Si	1	0.95658	0.79431	0.05534	Uiso	?	Si
Si	1	0.04342	0.20569	0.55534	Uiso	?	Si
Si	1	0.20569	0.95658	0.30534	Uiso	?	Si
Si	1	0.79431	0.04342	0.80534	Uiso	?	Si
Si	1	0.04342	0.79431	0.94466	Uiso	?	Si
Si	1	0.95658	0.20569	0.44466	Uiso	?	Si
Si	1	0.79431	0.95658	0.69466	Uiso	?	Si
Si	1	0.20569	0.04342	0.19466	Uiso	?	Si
Si	1	0.95664	0.53986	0.05532	Uiso	?	Si
Si	1	0.04336	0.46014	0.55532	Uiso	?	Si
Si	1	0.46014	0.95664	0.30532	Uiso	?	Si
Si	1	0.53986	0.04336	0.80532	Uiso	?	Si
Si	1	0.04336	0.53986	0.94468	Uiso	?	Si
Si	1	0.95664	0.46014	0.44468	Uiso	?	Si
Si	1	0.53986	0.95664	0.69468	Uiso	?	Si
Si	1	0.46014	0.04336	0.19468	Uiso	?	Si
Si	1	0.14125	0.85875	0.125	Uiso	?	Si
Si	1	0.85875	0.14125	0.625	Uiso	?	Si
Si	1	0.14125	0.14125	0.375	Uiso	?	Si
Si	1	0.85875	0.85875	0.875	Uiso	?	Si
Si	1	0.52874	0.85861	0.12558	Uiso	?	Si
Si	1	0.47126	0.14139	0.62558	Uiso	?	Si
Si	1	0.14139	0.52874	0.37558	Uiso	?	Si
Si	1	0.85861	0.47126	0.87558	Uiso	?	Si
Si	1	0.47126	0.85861	0.87442	Uiso	?	Si
Si	1	0.52874	0.14139	0.37442	Uiso	?	Si
Si	1	0.85861	0.52874	0.62442	Uiso	?	Si
Si	1	0.14139	0.47126	0.12442	Uiso	?	Si
Si	1	0.52891	0.47109	0.125	Uiso	?	Si
Si	1	0.47109	0.52891	0.625	Uiso	?	Si
Si	1	0.52891	0.52891	0.375	Uiso	?	Si
Si	1	0.47109	0.47109	0.875	Uiso	?	Si
Z0	1	0.7797	0.56353	0.55135	Uiso	?	H
